LAMMPS (16 Feb 2016)

# Deforming a Nanowire.
# Suman Kandel, Dr. Mark A. Tschopp, 2011.

# ------------------------ INITIALIZATION ----------------------------
units        metal
boundary     p p p

atom_style   atomic

# ----------------------- ATOM DEFINITION ----------------------------
lattice hcp 3.20
Lattice spacing in x,y,z = 3.2 5.54256 5.22558
region whole block 0  100 0 100 0 100 units box
create_box 1 whole
Created orthogonal box = (0 0 0) to (100 100 100)
region LLF cylinder z  50 50 20  INF INF  units box
lattice hcp 3.20 orient x 1 0 0 orient y 0 1 0 orient z 0 0 1
Lattice spacing in x,y,z = 3.2 5.54256 5.22558
create_atoms 1 region LLF
Created 5538 atoms
#delete_atoms overlap 0.5 all all

# ------------------------ FORCE FIELDS ------------------------------
pair_style   eam
pair_coeff   * * Au_u3.eam
Reading potential file Au_u3.eam with DATE: 2007-06-11

# ------------------------- SETTINGS ---------------------------------
#### Computes Required
compute csym all centro/atom 12
compute 2 all stress/atom NULL
compute mytemp all temp
compute 11 all reduce sum c_2[1]
compute 12 all reduce sum c_2[2]
compute 13 all reduce sum c_2[3]
compute 14 all reduce sum c_2[4]
compute 15 all reduce sum c_2[5]
compute 16 all reduce sum c_2[6]

neighbor     0.3 bin
neigh_modify delay 10
thermo 100
velocity all create 100.0 16723
thermo_style custom step temp etotal press pxx pyy pzz lx ly lz
shell mkdir dump
shell cd dump

#---------------Energy Equilibriation--------------------------
reset_timestep 0
fix 1 all nve
fix 2 all temp/rescale 10 100.0 100.0 1.0 0.5
dump 1 all custom 10000 dump.equilibrate.* id type x y z

run 10000
  2 neighbor list requests
  update every 1 steps, delay 10 steps, check yes
Step Temp TotEng Press Pxx Pyy Pzz Lx Ly Lz
0          100     29858.65    49437.481   -23602.927    -23694.16    195609.53          100          100          100
Averages over the last 51 of 101 rows, steps 5000 to 10000:
Temp TotEng Press Pxx Pyy Pzz Lx Ly Lz
99.9734 -20870.7 782.392 -32.6412 -60.4919 2440.31 100 100 100
Loop time of 3.43829 on 28 procs for 10000 steps with 5538 atoms

unfix 1
unfix 2

#-----------------Pressure Equilibriation-----------------------
fix 1 all npt temp 100.0 100.0 10.0 aniso 0.0 0.0 10 drag 0.3
run 10000
Step Temp TotEng Press Pxx Pyy Pzz Lx Ly Lz
10000    99.164161   -20913.801    38.709018    514.07254    651.96254    -1049.908          100          100          100
Averages over the last 51 of 101 rows, steps 15000 to 20000:
Temp TotEng Press Pxx Pyy Pzz Lx Ly Lz
120.858 -20951.1 -0.953571 -4.37318 7.11817 -5.60571 99.3998 100.232 91.1729
Loop time of 3.66657 on 28 procs for 10000 steps with 5538 atoms

unfix 1
undump 1
shell cd ..
shell mkdir deform
shell cd deform

#--------------------Storing Initial length---------------------
variable tmp equal "lz"
variable L0 equal 91.3039170421613
Initial Length, L0: 91.3039170421613
variable strain equal "v_srate/1e12"

#------------Deform------------------------------
reset_timestep 0
fix 1 all deform 1 z erate 0.0001 units box
fix 2 all nvt temp 100.0 100.0 10.0

variable strain equal "(lz - v_L0)/v_L0"
variable p1 equal "v_strain"
variable p2 equal "-pxx/10000"
variable p3 equal "-pyy/10000"
variable p4 equal "-pzz/10000"
variable p5 equal "lx"
variable p6 equal "ly"
variable p7 equal "lz"
variable p8 equal "temp"
variable p9 equal "pe"
variable p10 equal "ke"
variable p11 equal "-pxy/10000"
variable p13 equal "-pyz/10000"
variable p12 equal "-pxz/10000"
variable fm equal "(v_p2+v_p3+v_p4)/3" ##### Hydrostatic stress

variable fv equal "sqrt((v_p2-v_p3)^2+(v_p3-v_p4)^2+(v_p4-v_p2)^2+6*(v_p11^2+v_p12^2+v_p13^2)/2)" ######Von Mises Stress

variable t equal "v_fm/v_fv"
variable fd equal (((v_p2-v_fm)*(v_p3-v_fm)*(v_p4-v_fm))-v_p11^2*(v_p4-v_fm)-v_p12^2*(v_p3-v_fm)-v_p13^2*(v_p2-v_fm)+2*v_p11*v_p12*v_p13)####Deviatoric Von Mises stress

dump 2 all custom 10000 dump.defo.* id type x y z c_csym c_2[1] c_2[2] c_2[3] c_2[4] c_2[5] c_2[6]
dump            3 all xyz 10000 Au_*.xyz
dump            4 all dcd 10000 Au.dcd

run 100000
Step Temp TotEng Press Pxx Pyy Pzz Lx Ly Lz
0    119.45234   -20952.838   -26.493277    41.455701    3.9411757   -124.87671    99.235394    100.15526    91.303917
Averages over the last 501 of 1001 rows, steps 50000 to 100000:
Temp TotEng Press Pxx Pyy Pzz Lx Ly Lz
99.7669 -20976.6 -324.299 -0.627342 0.737788 -973.006 99.2354 100.155 91.9887
Loop time of 35.6144 on 28 procs for 100000 steps with 5538 atoms
